Version 4.1
SHEET 1 2256 724
WIRE 448 -208 304 -208
WIRE 1424 -208 512 -208
WIRE -192 -32 -352 -32
WIRE -48 -32 -192 -32
WIRE 64 -32 -48 -32
WIRE 304 -32 304 -208
WIRE 304 -32 128 -32
WIRE 448 -32 304 -32
WIRE 896 -32 528 -32
WIRE 1344 -32 896 -32
WIRE -48 -16 -48 -32
WIRE 896 -16 896 -32
WIRE 1088 -16 1040 -16
WIRE -352 0 -352 -32
WIRE -192 0 -192 -32
WIRE 1088 80 1088 64
WIRE 1344 80 1344 -32
WIRE 1344 80 1088 80
WIRE -352 96 -352 64
WIRE -192 96 -192 64
WIRE -192 96 -352 96
WIRE -48 96 -48 64
WIRE -48 96 -192 96
WIRE 1040 144 1040 -16
WIRE 1424 144 1424 -208
WIRE 1424 144 1040 144
WIRE 896 192 896 64
WIRE 896 288 896 272
WIRE 1040 384 1040 144
WIRE 896 432 896 368
WIRE 976 432 896 432
WIRE -48 656 -48 96
WIRE 16 656 -48 656
WIRE 1040 656 1040 480
WIRE 1040 656 16 656
WIRE 16 704 16 656
FLAG 16 704 0
SYMBOL res 880 176 R0
SYMATTR InstName R1
SYMATTR Value 100
SYMBOL res 880 272 R0
SYMATTR InstName R2
SYMATTR Value 20
SYMBOL ind 880 -32 R0
SYMATTR InstName L1
SYMATTR Value 0.4mH
SYMATTR Type ind
SYMBOL voltage -48 -32 R0
WINDOW 123 0 0 Left 0
WINDOW 39 0 0 Left 0
SYMATTR InstName V1
SYMATTR Value 20
SYMBOL diode -176 64 R180
WINDOW 0 24 64 Left 2
WINDOW 3 24 0 Left 2
SYMATTR InstName D1
SYMBOL diode 64 -16 R270
WINDOW 0 32 32 VTop 2
WINDOW 3 0 32 VBottom 2
SYMATTR InstName D2
SYMBOL npn 976 384 R0
SYMATTR InstName Q1
SYMATTR Value 2N2222
SYMBOL diode 512 -224 R90
WINDOW 0 0 32 VBottom 2
WINDOW 3 32 32 VTop 2
SYMATTR InstName D3
SYMBOL cap -368 0 R0
SYMATTR InstName C1
SYMATTR Value 470mF
SYMBOL ind 1072 -32 R0
SYMATTR InstName L2
SYMATTR Value 0.4mH
SYMATTR Type ind
SYMBOL voltage 432 -32 R270
WINDOW 0 32 56 VTop 2
WINDOW 3 -32 56 VBottom 2
WINDOW 123 0 0 Left 0
WINDOW 39 0 0 Left 0
SYMATTR InstName V2
SYMATTR Value 12
TEXT 1176 24 Left 2 !K L1 L2 0.99
TEXT 368 328 Left 2 !.tran 1
TEXT 1712 136 Left 2 !.meas TRAN t1  TRIG V(n001) VAL=40 RISE=1\n.meas TRAN t2  TRIG V(n001) VAL=40 RISE=2\n.meas TRAN period PARAM t2 - t1\n.meas TRAN freq PARAM 1 / period
